<?xml version='1.0' encoding='utf-8'?>
<nodes><node id="1" x="280595.6897" y="2116873.365" z="36.5671" type="priority" /><node id="2" x="280639.7356" y="2116864.293" z="36.5185" type="priority" /><node id="3" x="280686.2404" y="2116854.612" z="36.2912" type="priority" /><node id="4" x="280551.672" y="2116882.365" z="36.5597" type="priority" /><node id="5" x="280507.7559" y="2116891.365" z="36.5762" type="priority" /><node id="6" x="280463.7691" y="2116900.139" z="36.4539" type="priority" /><node id="7" x="280419.6319" y="2116908.753" z="36.4753" type="priority" /><node id="8" x="280375.594" y="2116917.349" z="37.1545" type="priority" /><node id="9" x="280331.7785" y="2116925.969" z="37.6436" type="priority" /><node id="10" x="280298.7032" y="2116932.688" z="38.9797" type="priority" /><node id="11" x="280273.3017" y="2116938.125" z="39.9512" type="priority" /></nodes>